/*--------------------------------*- C++ -*----------------------------------*\
| =========                 |                                                 |
| \\      /  F ield         | OpenFOAM: The Open Source CFD Toolbox           |
|  \\    /   O peration     | Version:  v2106                                 |
|   \\  /    A nd           | Website:  www.openfoam.com                      |
|    \\/     M anipulation  |                                                 |
\*---------------------------------------------------------------------------*/
FoamFile
{
    version     2.0;
    format      ascii;
    arch        "LSB;label=32;scalar=64";
    class       polyBoundaryMesh;
    location    "constant/polyMesh";
    object      boundary;
}
// * * * * * * * * * * * * * * * * * * * * * * * * * * * * * * * * * * * * * //

5
(
    top
    {
        type            patch;
        nFaces          20;
        startFace       1540;
    }
    bottom
    {
        type            patch;
        nFaces          20;
        startFace       1560;
    }
    left
    {
        type            patch;
        nFaces          40;
        startFace       1580;
    }
    right
    {
        type            patch;
        nFaces          40;
        startFace       1620;
    }
    frontandback
    {
        type            empty;
        inGroups        1(empty);
        nFaces          1600;
        startFace       1660;
    }
)

// ************************************************************************* //
